
     RDKit          3D

 38 37  0  0  0  0  0  0  0  0999 V2000
   -7.1107   -0.2338    2.0087 C   0  0  0  0  0  0  0  0  0  0  0  0
   -5.8822   -1.1218    2.0124 C   0  0  0  0  0  0  0  0  0  0  0  0
   -4.7394   -0.3103    1.7277 O   0  0  0  0  0  0  0  0  0  0  0  0
   -3.5579   -1.1667    1.7253 N   0  0  0  0  0  0  0  0  0  0  0  0
   -2.9347   -0.9395    0.4170 C   0  0  0  0  0  0  0  0  0  0  0  0
   -1.6292   -1.7231    0.2742 C   0  0  0  0  0  0  0  0  0  0  0  0
   -1.0729   -1.4421   -1.0177 O   0  0  0  0  0  0  0  0  0  0  0  0
    0.2111   -2.1277   -1.1273 N   0  0  0  0  0  0  0  0  0  0  0  0
    1.1609   -1.1148   -1.6051 C   0  0  0  0  0  0  0  0  0  0  0  0
    1.4625   -0.0205   -0.5784 C   0  0  0  0  0  0  0  0  0  0  0  0
    2.4456    0.8623   -1.1378 O   0  0  0  0  0  0  0  0  0  0  0  0
    2.7385    1.9053   -0.1605 N   0  0  0  0  0  0  0  0  0  0  0  0
    4.1885    1.8436    0.0658 C   0  0  0  0  0  0  0  0  0  0  0  0
    5.0461    2.1390   -1.1696 C   0  0  0  0  0  0  0  0  0  0  0  0
    6.4254    2.1289   -0.7754 O   0  0  0  0  0  0  0  0  0  0  0  0
    7.2399    2.4521   -1.9414 N   0  0  0  0  0  0  0  0  0  0  0  0
   -7.0149    0.5601    2.7569 H   0  0  0  0  0  0  0  0  0  0  0  0
   -7.2286    0.2570    1.0370 H   0  0  0  0  0  0  0  0  0  0  0  0
   -8.0124   -0.8141    2.2230 H   0  0  0  0  0  0  0  0  0  0  0  0
   -5.9832   -1.9001    1.2474 H   0  0  0  0  0  0  0  0  0  0  0  0
   -5.7648   -1.5922    2.9953 H   0  0  0  0  0  0  0  0  0  0  0  0
   -2.9892   -0.7250    2.4511 H   0  0  0  0  0  0  0  0  0  0  0  0
   -3.6216   -1.2432   -0.3826 H   0  0  0  0  0  0  0  0  0  0  0  0
   -2.7342    0.1289    0.2668 H   0  0  0  0  0  0  0  0  0  0  0  0
   -1.8181   -2.8000    0.3595 H   0  0  0  0  0  0  0  0  0  0  0  0
   -0.9186   -1.4194    1.0528 H   0  0  0  0  0  0  0  0  0  0  0  0
    0.0236   -2.7845   -1.8882 H   0  0  0  0  0  0  0  0  0  0  0  0
    0.8003   -0.6614   -2.5373 H   0  0  0  0  0  0  0  0  0  0  0  0
    2.0990   -1.6185   -1.8676 H   0  0  0  0  0  0  0  0  0  0  0  0
    0.5574    0.5524   -0.3447 H   0  0  0  0  0  0  0  0  0  0  0  0
    1.8564   -0.4651    0.3437 H   0  0  0  0  0  0  0  0  0  0  0  0
    2.5084    2.7504   -0.6870 H   0  0  0  0  0  0  0  0  0  0  0  0
    4.4404    2.5689    0.8489 H   0  0  0  0  0  0  0  0  0  0  0  0
    4.4597    0.8654    0.4821 H   0  0  0  0  0  0  0  0  0  0  0  0
    4.8880    1.3781   -1.9429 H   0  0  0  0  0  0  0  0  0  0  0  0
    4.7931    3.1256   -1.5766 H   0  0  0  0  0  0  0  0  0  0  0  0
    7.8004    3.2269   -1.5823 H   0  0  0  0  0  0  0  0  0  0  0  0
    7.8672    1.6465   -1.9732 H   0  0  0  0  0  0  0  0  0  0  0  0
  1  2  1  0
  2  3  1  0
  3  4  1  0
  5  6  1  0
  6  7  1  0
  7  8  1  0
  4  5  1  0
  9 10  1  0
 10 11  1  0
 11 12  1  0
  8  9  1  0
 13 14  1  0
 14 15  1  0
 15 16  1  0
 12 13  1  0
  1 17  1  0
  1 18  1  0
  1 19  1  0
  2 20  1  0
  2 21  1  0
  4 22  1  0
  5 23  1  0
  5 24  1  0
  6 25  1  0
  6 26  1  0
  8 27  1  0
  9 28  1  0
  9 29  1  0
 10 30  1  0
 10 31  1  0
 12 32  1  0
 13 33  1  0
 13 34  1  0
 14 35  1  0
 14 36  1  0
 16 37  1  0
 16 38  1  0
M  END
$$$$
