
     RDKit          3D

 18 17  0  0  0  0  0  0  0  0999 V2000
    1.3725   -0.0560    1.0285 C   0  0  0  0  0  0  0  0  0  0  0  0
    2.6638    0.4975    1.2931 O   0  0  0  0  0  0  0  0  0  0  0  0
    0.8552    0.4958   -0.3041 C   0  0  0  0  0  0  0  0  0  0  0  0
    1.8073    0.1068   -1.3166 O   0  0  0  0  0  0  0  0  0  0  0  0
   -0.5291   -0.0240   -0.7089 C   0  0  0  0  0  0  0  0  0  0  0  0
   -0.4668   -1.4553   -0.8480 O   0  0  0  0  0  0  0  0  0  0  0  0
   -1.6413    0.3356    0.2766 C   0  0  0  0  0  0  0  0  0  0  0  0
   -2.8704   -0.1872   -0.2347 O   0  0  0  0  0  0  0  0  0  0  0  0
    1.4880   -1.1439    0.9963 H   0  0  0  0  0  0  0  0  0  0  0  0
    0.7202    0.2104    1.8637 H   0  0  0  0  0  0  0  0  0  0  0  0
    3.1406    0.4545    0.4393 H   0  0  0  0  0  0  0  0  0  0  0  0
    0.8607    1.5910   -0.2772 H   0  0  0  0  0  0  0  0  0  0  0  0
    1.5673   -0.8146   -1.5492 H   0  0  0  0  0  0  0  0  0  0  0  0
   -0.7816    0.3530   -1.7074 H   0  0  0  0  0  0  0  0  0  0  0  0
   -1.3983   -1.7287   -0.9836 H   0  0  0  0  0  0  0  0  0  0  0  0
   -1.4800   -0.1289    1.2534 H   0  0  0  0  0  0  0  0  0  0  0  0
   -1.7364    1.4194    0.3900 H   0  0  0  0  0  0  0  0  0  0  0  0
   -3.5717    0.0747    0.3889 H   0  0  0  0  0  0  0  0  0  0  0  0
  1  2  1  0
  3  4  1  0
  1  3  1  0
  5  6  1  0
  3  5  1  0
  7  8  1  0
  5  7  1  0
  1  9  1  0
  1 10  1  0
  2 11  1  0
  3 12  1  0
  4 13  1  0
  5 14  1  0
  6 15  1  0
  7 16  1  0
  7 17  1  0
  8 18  1  0
M  END
$$$$
