
     RDKit          3D

 38 37  0  0  0  0  0  0  0  0999 V2000
   -5.4831   -0.4980   -2.2624 C   0  0  0  0  0  0  0  0  0  0  0  0
   -4.3418   -1.4504   -2.5206 C   0  0  0  0  0  0  0  0  0  0  0  0
   -4.6148   -3.0998   -2.6897 S   0  0  0  0  0  0  0  0  0  0  0  0
   -2.9406   -0.8740   -2.5954 C   0  0  0  0  0  0  0  0  0  0  0  0
   -2.6339   -0.3115   -1.3241 O   0  0  0  0  0  0  0  0  0  0  0  0
   -1.3124    0.2252   -1.2989 C   0  0  0  0  0  0  0  0  0  0  0  0
   -1.0988    0.8196    0.0771 C   0  0  0  0  0  0  0  0  0  0  0  0
   -1.0991    2.4861    0.3229 S   0  0  0  0  0  0  0  0  0  0  0  0
   -0.8879   -0.1378    1.2317 C   0  0  0  0  0  0  0  0  0  0  0  0
    0.4070   -0.7066    1.0596 O   0  0  0  0  0  0  0  0  0  0  0  0
    0.8779   -1.3820    2.2176 C   0  0  0  0  0  0  0  0  0  0  0  0
    1.5668   -0.4231    3.1781 C   0  0  0  0  0  0  0  0  0  0  0  0
    1.2519   -0.4839    4.8293 S   0  0  0  0  0  0  0  0  0  0  0  0
    2.5376    0.5908    2.6005 C   0  0  0  0  0  0  0  0  0  0  0  0
    3.4704   -0.0967    1.7707 O   0  0  0  0  0  0  0  0  0  0  0  0
    4.2818    0.7864    1.0114 C   0  0  0  0  0  0  0  0  0  0  0  0
    3.5628    1.3625   -0.2025 C   0  0  0  0  0  0  0  0  0  0  0  0
    3.5867    3.0191   -0.5105 S   0  0  0  0  0  0  0  0  0  0  0  0
    2.9485    0.3891   -1.2032 C   0  0  0  0  0  0  0  0  0  0  0  0
    1.7877    0.8717   -1.8578 O   0  0  0  0  0  0  0  0  0  0  0  0
   -5.4085    0.3487   -2.9514 H   0  0  0  0  0  0  0  0  0  0  0  0
   -5.4143   -0.1224   -1.2371 H   0  0  0  0  0  0  0  0  0  0  0  0
   -6.4592   -0.9719   -2.3995 H   0  0  0  0  0  0  0  0  0  0  0  0
   -2.2044   -1.6428   -2.8548 H   0  0  0  0  0  0  0  0  0  0  0  0
   -2.9288   -0.0901   -3.3611 H   0  0  0  0  0  0  0  0  0  0  0  0
   -1.1990    0.9821   -2.0827 H   0  0  0  0  0  0  0  0  0  0  0  0
   -0.5848   -0.5770   -1.4616 H   0  0  0  0  0  0  0  0  0  0  0  0
   -0.9631    0.3820    2.1929 H   0  0  0  0  0  0  0  0  0  0  0  0
   -1.6421   -0.9306    1.1926 H   0  0  0  0  0  0  0  0  0  0  0  0
    0.0681   -1.9468    2.6936 H   0  0  0  0  0  0  0  0  0  0  0  0
    1.6306   -2.1063    1.8867 H   0  0  0  0  0  0  0  0  0  0  0  0
    3.0800    1.1228    3.3895 H   0  0  0  0  0  0  0  0  0  0  0  0
    1.9580    1.3139    2.0167 H   0  0  0  0  0  0  0  0  0  0  0  0
    4.6963    1.5681    1.6585 H   0  0  0  0  0  0  0  0  0  0  0  0
    5.1267    0.2007    0.6313 H   0  0  0  0  0  0  0  0  0  0  0  0
    2.6789   -0.5393   -0.6924 H   0  0  0  0  0  0  0  0  0  0  0  0
    3.7022    0.1453   -1.9596 H   0  0  0  0  0  0  0  0  0  0  0  0
    1.9967    1.7768   -2.1603 H   0  0  0  0  0  0  0  0  0  0  0  0
  1  2  1  0
  2  3  2  0
  2  4  1  0
  4  5  1  0
  6  7  1  0
  7  8  2  0
  7  9  1  0
  9 10  1  0
  5  6  1  0
 11 12  1  0
 12 13  2  0
 12 14  1  0
 14 15  1  0
 10 11  1  0
 16 17  1  0
 17 18  2  0
 17 19  1  0
 19 20  1  0
 15 16  1  0
  1 21  1  0
  1 22  1  0
  1 23  1  0
  4 24  1  0
  4 25  1  0
  6 26  1  0
  6 27  1  0
  9 28  1  0
  9 29  1  0
 11 30  1  0
 11 31  1  0
 14 32  1  0
 14 33  1  0
 16 34  1  0
 16 35  1  0
 19 36  1  0
 19 37  1  0
 20 38  1  0
M  END
$$$$
