
     RDKit          3D

 29 28  0  0  0  0  0  0  0  0999 V2000
   -4.6297    1.0637   -1.3025 C   0  0  0  0  0  0  0  0  0  0  0  0
   -3.9698    0.9808    0.0595 C   0  0  0  0  0  0  0  0  0  0  0  0
   -2.8182    1.8298    0.0533 O   0  0  0  0  0  0  0  0  0  0  0  0
   -2.1595    1.7211    1.3509 N   0  0  0  0  0  0  0  0  0  0  0  0
   -0.7443    1.4638    1.0542 C   0  0  0  0  0  0  0  0  0  0  0  0
   -0.4829    0.0874    0.4377 C   0  0  0  0  0  0  0  0  0  0  0  0
    0.9335   -0.0672    0.2693 O   0  0  0  0  0  0  0  0  0  0  0  0
    1.1874   -1.3801   -0.3159 N   0  0  0  0  0  0  0  0  0  0  0  0
    2.1420   -2.0411    0.5896 C   0  0  0  0  0  0  0  0  0  0  0  0
    3.5188   -1.3686    0.6571 C   0  0  0  0  0  0  0  0  0  0  0  0
    4.1417   -1.4444   -0.6330 O   0  0  0  0  0  0  0  0  0  0  0  0
    5.4772   -0.8663   -0.5338 N   0  0  0  0  0  0  0  0  0  0  0  0
   -3.9339    0.7492   -2.0873 H   0  0  0  0  0  0  0  0  0  0  0  0
   -5.5195    0.4294   -1.3443 H   0  0  0  0  0  0  0  0  0  0  0  0
   -4.9196    2.0952   -1.5285 H   0  0  0  0  0  0  0  0  0  0  0  0
   -3.6692   -0.0531    0.2646 H   0  0  0  0  0  0  0  0  0  0  0  0
   -4.6684    1.3155    0.8346 H   0  0  0  0  0  0  0  0  0  0  0  0
   -2.2501    2.6774    1.7005 H   0  0  0  0  0  0  0  0  0  0  0  0
   -0.3419    2.2471    0.3993 H   0  0  0  0  0  0  0  0  0  0  0  0
   -0.1768    1.5434    1.9893 H   0  0  0  0  0  0  0  0  0  0  0  0
   -0.9726    0.0005   -0.5393 H   0  0  0  0  0  0  0  0  0  0  0  0
   -0.8575   -0.7016    1.1011 H   0  0  0  0  0  0  0  0  0  0  0  0
    1.6813   -1.1261   -1.1760 H   0  0  0  0  0  0  0  0  0  0  0  0
    2.2694   -3.0667    0.2250 H   0  0  0  0  0  0  0  0  0  0  0  0
    1.7076   -2.1054    1.5937 H   0  0  0  0  0  0  0  0  0  0  0  0
    4.1402   -1.9015    1.3869 H   0  0  0  0  0  0  0  0  0  0  0  0
    3.4334   -0.3202    0.9659 H   0  0  0  0  0  0  0  0  0  0  0  0
    5.4339   -0.1441   -1.2548 H   0  0  0  0  0  0  0  0  0  0  0  0
    6.0474   -1.6177   -0.9256 H   0  0  0  0  0  0  0  0  0  0  0  0
  1  2  1  0
  2  3  1  0
  3  4  1  0
  5  6  1  0
  6  7  1  0
  7  8  1  0
  4  5  1  0
  9 10  1  0
 10 11  1  0
 11 12  1  0
  8  9  1  0
  1 13  1  0
  1 14  1  0
  1 15  1  0
  2 16  1  0
  2 17  1  0
  4 18  1  0
  5 19  1  0
  5 20  1  0
  6 21  1  0
  6 22  1  0
  8 23  1  0
  9 24  1  0
  9 25  1  0
 10 26  1  0
 10 27  1  0
 12 28  1  0
 12 29  1  0
M  END
$$$$
