
     RDKit          3D

 10  9  0  0  0  0  0  0  0  0999 V2000
    0.4630   -0.3286   -0.4438 C   0  0  0  0  0  0  0  0  0  0  0  0
    1.1111   -0.5569    0.8089 O   0  0  0  0  0  0  0  0  0  0  0  0
   -0.6379    0.7046   -0.2389 C   0  0  0  0  0  0  0  0  0  0  0  0
   -1.5651    0.2214    0.7316 O   0  0  0  0  0  0  0  0  0  0  0  0
    0.0403   -1.2809   -0.7784 H   0  0  0  0  0  0  0  0  0  0  0  0
    1.2017    0.0251   -1.1684 H   0  0  0  0  0  0  0  0  0  0  0  0
    1.7966   -1.2298    0.6508 H   0  0  0  0  0  0  0  0  0  0  0  0
   -0.2251    1.6451    0.1390 H   0  0  0  0  0  0  0  0  0  0  0  0
   -1.1760    0.8976   -1.1708 H   0  0  0  0  0  0  0  0  0  0  0  0
   -1.0086   -0.0977    1.4699 H   0  0  0  0  0  0  0  0  0  0  0  0
  1  2  1  0
  3  4  1  0
  1  3  1  0
  1  5  1  0
  1  6  1  0
  2  7  1  0
  3  8  1  0
  3  9  1  0
  4 10  1  0
M  END
$$$$
