
     RDKit          3D

 34 33  0  0  0  0  0  0  0  0999 V2000
    6.7221   -1.7354    0.1443 C   0  0  0  0  0  0  0  0  0  0  0  0
    5.3407   -1.4446    0.7049 C   0  0  0  0  0  0  0  0  0  0  0  0
    5.2872    0.1502    1.5895 S   0  0  0  0  0  0  0  0  0  0  0  0
    5.3943    1.5400    0.0803 S   0  0  0  0  0  0  0  0  0  0  0  0
    3.6547    2.0403   -0.2104 C   0  0  0  0  0  0  0  0  0  0  0  0
    2.7868    1.0111   -0.9339 C   0  0  0  0  0  0  0  0  0  0  0  0
    1.8351   -0.1052    0.1604 S   0  0  0  0  0  0  0  0  0  0  0  0
    0.4797    1.1568    1.0594 S   0  0  0  0  0  0  0  0  0  0  0  0
   -0.8970    1.2228   -0.1447 C   0  0  0  0  0  0  0  0  0  0  0  0
   -1.6516   -0.1015   -0.2166 C   0  0  0  0  0  0  0  0  0  0  0  0
   -3.0178   -0.0423   -1.4342 S   0  0  0  0  0  0  0  0  0  0  0  0
   -4.3711    1.2432   -0.5662 S   0  0  0  0  0  0  0  0  0  0  0  0
   -5.3190    0.1575    0.5632 C   0  0  0  0  0  0  0  0  0  0  0  0
   -6.2027   -0.8249   -0.2000 C   0  0  0  0  0  0  0  0  0  0  0  0
   -7.1502   -1.9078    0.9304 S   0  0  0  0  0  0  0  0  0  0  0  0
   -8.5225   -0.6254    1.7634 S   0  0  0  0  0  0  0  0  0  0  0  0
    7.4825   -1.7384    0.9326 H   0  0  0  0  0  0  0  0  0  0  0  0
    6.7299   -2.7248   -0.3252 H   0  0  0  0  0  0  0  0  0  0  0  0
    7.0155   -1.0094   -0.6202 H   0  0  0  0  0  0  0  0  0  0  0  0
    5.0708   -2.2264    1.4222 H   0  0  0  0  0  0  0  0  0  0  0  0
    4.5934   -1.4638   -0.0925 H   0  0  0  0  0  0  0  0  0  0  0  0
    3.7335    2.9169   -0.8643 H   0  0  0  0  0  0  0  0  0  0  0  0
    3.2163    2.4031    0.7243 H   0  0  0  0  0  0  0  0  0  0  0  0
    2.0567    1.5322   -1.5637 H   0  0  0  0  0  0  0  0  0  0  0  0
    3.3869    0.3947   -1.6121 H   0  0  0  0  0  0  0  0  0  0  0  0
   -0.4991    1.5165   -1.1221 H   0  0  0  0  0  0  0  0  0  0  0  0
   -1.5570    2.0275    0.1936 H   0  0  0  0  0  0  0  0  0  0  0  0
   -0.9897   -0.9088   -0.5448 H   0  0  0  0  0  0  0  0  0  0  0  0
   -2.0583   -0.3895    0.7589 H   0  0  0  0  0  0  0  0  0  0  0  0
   -4.6184   -0.3597    1.2278 H   0  0  0  0  0  0  0  0  0  0  0  0
   -5.9258    0.8234    1.1846 H   0  0  0  0  0  0  0  0  0  0  0  0
   -6.9039   -0.3082   -0.8647 H   0  0  0  0  0  0  0  0  0  0  0  0
   -5.5957   -1.4915   -0.8204 H   0  0  0  0  0  0  0  0  0  0  0  0
   -9.5060   -0.7283    0.8557 H   0  0  0  0  0  0  0  0  0  0  0  0
  1  2  1  0
  2  3  1  0
  3  4  1  0
  5  6  1  0
  6  7  1  0
  7  8  1  0
  4  5  1  0
  9 10  1  0
 10 11  1  0
 11 12  1  0
  8  9  1  0
 13 14  1  0
 14 15  1  0
 15 16  1  0
 12 13  1  0
  1 17  1  0
  1 18  1  0
  1 19  1  0
  2 20  1  0
  2 21  1  0
  5 22  1  0
  5 23  1  0
  6 24  1  0
  6 25  1  0
  9 26  1  0
  9 27  1  0
 10 28  1  0
 10 29  1  0
 13 30  1  0
 13 31  1  0
 14 32  1  0
 14 33  1  0
 16 34  1  0
M  END
$$$$
