
     RDKit          3D

 18 17  0  0  0  0  0  0  0  0999 V2000
   -3.1831    0.5483    0.0203 C   0  0  0  0  0  0  0  0  0  0  0  0
   -1.9506    0.4880    0.9052 C   0  0  0  0  0  0  0  0  0  0  0  0
   -1.1735   -1.1627    0.9099 S   0  0  0  0  0  0  0  0  0  0  0  0
   -0.4303   -1.3451   -1.0014 S   0  0  0  0  0  0  0  0  0  0  0  0
    1.1826   -0.4872   -0.9066 C   0  0  0  0  0  0  0  0  0  0  0  0
    2.1797   -1.2346   -0.0267 C   0  0  0  0  0  0  0  0  0  0  0  0
    3.8400   -0.4645   -0.0699 S   0  0  0  0  0  0  0  0  0  0  0  0
    3.5596    1.3106    0.9271 S   0  0  0  0  0  0  0  0  0  0  0  0
   -3.6518    1.5344    0.1064 H   0  0  0  0  0  0  0  0  0  0  0  0
   -2.9393    0.3958   -1.0354 H   0  0  0  0  0  0  0  0  0  0  0  0
   -3.9272   -0.1980    0.3181 H   0  0  0  0  0  0  0  0  0  0  0  0
   -2.2379    0.7151    1.9371 H   0  0  0  0  0  0  0  0  0  0  0  0
   -1.2151    1.2402    0.6027 H   0  0  0  0  0  0  0  0  0  0  0  0
    1.5609   -0.4235   -1.9330 H   0  0  0  0  0  0  0  0  0  0  0  0
    1.0089    0.5363   -0.5604 H   0  0  0  0  0  0  0  0  0  0  0  0
    2.3035   -2.2619   -0.3871 H   0  0  0  0  0  0  0  0  0  0  0  0
    1.8547   -1.2913    1.0168 H   0  0  0  0  0  0  0  0  0  0  0  0
    3.2189    2.1000   -0.1031 H   0  0  0  0  0  0  0  0  0  0  0  0
  1  2  1  0
  2  3  1  0
  3  4  1  0
  5  6  1  0
  6  7  1  0
  7  8  1  0
  4  5  1  0
  1  9  1  0
  1 10  1  0
  1 11  1  0
  2 12  1  0
  2 13  1  0
  5 14  1  0
  5 15  1  0
  6 16  1  0
  6 17  1  0
  8 18  1  0
M  END
$$$$
