
     RDKit          3D

 20 19  0  0  0  0  0  0  0  0999 V2000
   -2.3682   -0.1678    2.0492 C   0  0  0  0  0  0  0  0  0  0  0  0
   -1.1080    0.6130    1.7336 C   0  0  0  0  0  0  0  0  0  0  0  0
   -1.1364    0.9714    0.3488 O   0  0  0  0  0  0  0  0  0  0  0  0
    0.0942    1.6899    0.0343 N   0  0  0  0  0  0  0  0  0  0  0  0
    0.6369    1.0364   -1.1639 C   0  0  0  0  0  0  0  0  0  0  0  0
    1.1439   -0.3869   -0.9162 C   0  0  0  0  0  0  0  0  0  0  0  0
    1.7127   -0.8817   -2.1376 O   0  0  0  0  0  0  0  0  0  0  0  0
    2.1946   -2.2389   -1.9058 N   0  0  0  0  0  0  0  0  0  0  0  0
   -3.2582    0.4315    1.8305 H   0  0  0  0  0  0  0  0  0  0  0  0
   -2.3911   -0.4631    3.1019 H   0  0  0  0  0  0  0  0  0  0  0  0
   -2.4295   -1.0676    1.4281 H   0  0  0  0  0  0  0  0  0  0  0  0
   -0.2265   -0.0045    1.9406 H   0  0  0  0  0  0  0  0  0  0  0  0
   -1.0668    1.5203    2.3468 H   0  0  0  0  0  0  0  0  0  0  0  0
   -0.2730    2.6058   -0.2325 H   0  0  0  0  0  0  0  0  0  0  0  0
   -0.1101    1.0301   -1.9680 H   0  0  0  0  0  0  0  0  0  0  0  0
    1.4680    1.6446   -1.5407 H   0  0  0  0  0  0  0  0  0  0  0  0
    0.3209   -1.0439   -0.6111 H   0  0  0  0  0  0  0  0  0  0  0  0
    1.9129   -0.3841   -0.1342 H   0  0  0  0  0  0  0  0  0  0  0  0
    3.1678   -2.1563   -2.2044 H   0  0  0  0  0  0  0  0  0  0  0  0
    1.7156   -2.7480   -2.6504 H   0  0  0  0  0  0  0  0  0  0  0  0
  1  2  1  0
  2  3  1  0
  3  4  1  0
  5  6  1  0
  6  7  1  0
  7  8  1  0
  4  5  1  0
  1  9  1  0
  1 10  1  0
  1 11  1  0
  2 12  1  0
  2 13  1  0
  4 14  1  0
  5 15  1  0
  5 16  1  0
  6 17  1  0
  6 18  1  0
  8 19  1  0
  8 20  1  0
M  END
$$$$
