
     RDKit          3D

 16 15  0  0  0  0  0  0  0  0999 V2000
   -2.4260   -0.2944   -0.0786 C   0  0  0  0  0  0  0  0  0  0  0  0
   -1.4704    0.4976   -0.9523 C   0  0  0  0  0  0  0  0  0  0  0  0
    0.1613   -0.2996   -1.0962 S   0  0  0  0  0  0  0  0  0  0  0  0
    0.7817   -0.0441    0.6064 C   0  0  0  0  0  0  0  0  0  0  0  0
    2.2654   -0.3905    0.7402 C   0  0  0  0  0  0  0  0  0  0  0  0
    3.3509    0.7816   -0.1345 S   0  0  0  0  0  0  0  0  0  0  0  0
   -3.4120    0.1823   -0.0824 H   0  0  0  0  0  0  0  0  0  0  0  0
   -2.0899   -0.3359    0.9618 H   0  0  0  0  0  0  0  0  0  0  0  0
   -2.5524   -1.3181   -0.4465 H   0  0  0  0  0  0  0  0  0  0  0  0
   -1.8866    0.5774   -1.9617 H   0  0  0  0  0  0  0  0  0  0  0  0
   -1.3470    1.5159   -0.5702 H   0  0  0  0  0  0  0  0  0  0  0  0
    0.6007    0.9917    0.9133 H   0  0  0  0  0  0  0  0  0  0  0  0
    0.2119   -0.6994    1.2727 H   0  0  0  0  0  0  0  0  0  0  0  0
    2.5466   -0.3634    1.7981 H   0  0  0  0  0  0  0  0  0  0  0  0
    2.4687   -1.4030    0.3753 H   0  0  0  0  0  0  0  0  0  0  0  0
    2.7970    0.6019   -1.3452 H   0  0  0  0  0  0  0  0  0  0  0  0
  1  2  1  0
  2  3  1  0
  4  5  1  0
  5  6  1  0
  3  4  1  0
  1  7  1  0
  1  8  1  0
  1  9  1  0
  2 10  1  0
  2 11  1  0
  4 12  1  0
  4 13  1  0
  5 14  1  0
  5 15  1  0
  6 16  1  0
M  END
$$$$
