
     RDKit          3D

 26 25  0  0  0  0  0  0  0  0999 V2000
   -5.7216   -0.0112    0.1625 C   0  0  0  0  0  0  0  0  0  0  0  0
   -4.6342   -0.9034    0.7346 C   0  0  0  0  0  0  0  0  0  0  0  0
   -3.4196   -1.4201   -0.5254 S   0  0  0  0  0  0  0  0  0  0  0  0
   -2.4394    0.3310   -0.9856 S   0  0  0  0  0  0  0  0  0  0  0  0
   -1.1609    0.4515    0.3181 C   0  0  0  0  0  0  0  0  0  0  0  0
   -0.0809   -0.6139    0.1549 C   0  0  0  0  0  0  0  0  0  0  0  0
    1.1979   -0.4949    1.4601 S   0  0  0  0  0  0  0  0  0  0  0  0
    2.1784    1.2570    1.0047 S   0  0  0  0  0  0  0  0  0  0  0  0
    3.3996    0.7405   -0.2579 C   0  0  0  0  0  0  0  0  0  0  0  0
    4.4967   -0.1378    0.3368 C   0  0  0  0  0  0  0  0  0  0  0  0
    5.7195   -0.6476   -0.9254 S   0  0  0  0  0  0  0  0  0  0  0  0
    6.7207    1.0989   -1.3366 S   0  0  0  0  0  0  0  0  0  0  0  0
   -6.4616    0.2130    0.9382 H   0  0  0  0  0  0  0  0  0  0  0  0
   -6.2478   -0.5004   -0.6641 H   0  0  0  0  0  0  0  0  0  0  0  0
   -5.3248    0.9443   -0.1935 H   0  0  0  0  0  0  0  0  0  0  0  0
   -5.0911   -1.8129    1.1380 H   0  0  0  0  0  0  0  0  0  0  0  0
   -4.1176   -0.4078    1.5627 H   0  0  0  0  0  0  0  0  0  0  0  0
   -1.6466    0.3894    1.2980 H   0  0  0  0  0  0  0  0  0  0  0  0
   -0.7327    1.4548    0.2300 H   0  0  0  0  0  0  0  0  0  0  0  0
    0.4058   -0.5510   -0.8245 H   0  0  0  0  0  0  0  0  0  0  0  0
   -0.5088   -1.6174    0.2422 H   0  0  0  0  0  0  0  0  0  0  0  0
    3.8208    1.6641   -0.6669 H   0  0  0  0  0  0  0  0  0  0  0  0
    2.8727    0.2336   -1.0736 H   0  0  0  0  0  0  0  0  0  0  0  0
    5.0226    0.3674    1.1544 H   0  0  0  0  0  0  0  0  0  0  0  0
    4.0756   -1.0631    0.7421 H   0  0  0  0  0  0  0  0  0  0  0  0
    7.6771    1.0360   -0.3970 H   0  0  0  0  0  0  0  0  0  0  0  0
  1  2  1  0
  2  3  1  0
  3  4  1  0
  5  6  1  0
  6  7  1  0
  7  8  1  0
  4  5  1  0
  9 10  1  0
 10 11  1  0
 11 12  1  0
  8  9  1  0
  1 13  1  0
  1 14  1  0
  1 15  1  0
  2 16  1  0
  2 17  1  0
  5 18  1  0
  5 19  1  0
  6 20  1  0
  6 21  1  0
  9 22  1  0
  9 23  1  0
 10 24  1  0
 10 25  1  0
 12 26  1  0
M  END
$$$$
