
     RDKit          3D

 23 22  0  0  0  0  0  0  0  0999 V2000
   -3.7276    0.7792   -1.3841 C   0  0  0  0  0  0  0  0  0  0  0  0
   -3.4178   -0.3330   -0.3987 C   0  0  0  0  0  0  0  0  0  0  0  0
   -2.3547    0.2301    0.9694 S   0  0  0  0  0  0  0  0  0  0  0  0
   -0.7717    0.4117    0.0768 C   0  0  0  0  0  0  0  0  0  0  0  0
    0.3385    0.7676    1.0631 C   0  0  0  0  0  0  0  0  0  0  0  0
    1.9513    0.9756    0.2253 S   0  0  0  0  0  0  0  0  0  0  0  0
    2.3583   -0.7808   -0.0924 C   0  0  0  0  0  0  0  0  0  0  0  0
    3.7844   -0.9593   -0.6160 C   0  0  0  0  0  0  0  0  0  0  0  0
    5.0535   -0.5990    0.6391 S   0  0  0  0  0  0  0  0  0  0  0  0
   -4.4262    0.4150   -2.1450 H   0  0  0  0  0  0  0  0  0  0  0  0
   -4.1961    1.6361   -0.8886 H   0  0  0  0  0  0  0  0  0  0  0  0
   -2.8308    1.1253   -1.9064 H   0  0  0  0  0  0  0  0  0  0  0  0
   -4.3528   -0.6953    0.0406 H   0  0  0  0  0  0  0  0  0  0  0  0
   -2.9460   -1.1813   -0.9044 H   0  0  0  0  0  0  0  0  0  0  0  0
   -0.5573   -0.5344   -0.4286 H   0  0  0  0  0  0  0  0  0  0  0  0
   -0.8756    1.2010   -0.6738 H   0  0  0  0  0  0  0  0  0  0  0  0
    0.4451    0.0098    1.8470 H   0  0  0  0  0  0  0  0  0  0  0  0
    0.1139    1.7207    1.5551 H   0  0  0  0  0  0  0  0  0  0  0  0
    1.6617   -1.1554   -0.8488 H   0  0  0  0  0  0  0  0  0  0  0  0
    2.2102   -1.3642    0.8227 H   0  0  0  0  0  0  0  0  0  0  0  0
    3.9247   -1.9994   -0.9281 H   0  0  0  0  0  0  0  0  0  0  0  0
    3.9639   -0.3292   -1.4938 H   0  0  0  0  0  0  0  0  0  0  0  0
    4.6513    0.6592    0.8841 H   0  0  0  0  0  0  0  0  0  0  0  0
  1  2  1  0
  2  3  1  0
  4  5  1  0
  5  6  1  0
  3  4  1  0
  7  8  1  0
  8  9  1  0
  6  7  1  0
  1 10  1  0
  1 11  1  0
  1 12  1  0
  2 13  1  0
  2 14  1  0
  4 15  1  0
  4 16  1  0
  5 17  1  0
  5 18  1  0
  7 19  1  0
  7 20  1  0
  8 21  1  0
  8 22  1  0
  9 23  1  0
M  END
$$$$
