
     RDKit          3D

 46 45  0  0  0  0  0  0  0  0999 V2000
    8.8762   -0.0263    0.3381 C   0  0  0  0  0  0  0  0  0  0  0  0
    7.8766    0.7443   -0.5129 C   0  0  0  0  0  0  0  0  0  0  0  0
    6.7798    1.4392    0.2948 C   0  0  0  0  0  0  0  0  0  0  0  0
    5.6985    0.3217    1.2548 S   0  0  0  0  0  0  0  0  0  0  0  0
    4.7224   -0.7559   -0.2015 S   0  0  0  0  0  0  0  0  0  0  0  0
    3.3276    0.3299   -0.6654 C   0  0  0  0  0  0  0  0  0  0  0  0
    2.3135    0.5938    0.4511 C   0  0  0  0  0  0  0  0  0  0  0  0
    1.6498   -0.6390    1.0706 C   0  0  0  0  0  0  0  0  0  0  0  0
    0.7512   -1.7068   -0.1099 S   0  0  0  0  0  0  0  0  0  0  0  0
   -0.7711   -0.4961   -0.7803 S   0  0  0  0  0  0  0  0  0  0  0  0
   -2.0634   -0.7034    0.4939 C   0  0  0  0  0  0  0  0  0  0  0  0
   -2.6355   -2.1182    0.6221 C   0  0  0  0  0  0  0  0  0  0  0  0
   -3.2484   -2.7170   -0.6447 C   0  0  0  0  0  0  0  0  0  0  0  0
   -4.6413   -1.7722   -1.3598 S   0  0  0  0  0  0  0  0  0  0  0  0
   -6.1805   -2.0995   -0.0327 S   0  0  0  0  0  0  0  0  0  0  0  0
   -6.0958   -0.6724    1.1022 C   0  0  0  0  0  0  0  0  0  0  0  0
   -6.9529    0.5216    0.6760 C   0  0  0  0  0  0  0  0  0  0  0  0
   -6.4863    1.1957   -0.6130 C   0  0  0  0  0  0  0  0  0  0  0  0
   -7.3847    2.7559   -0.9285 S   0  0  0  0  0  0  0  0  0  0  0  0
   -6.5624    4.0461    0.4440 S   0  0  0  0  0  0  0  0  0  0  0  0
    9.6884   -0.4057   -0.2904 H   0  0  0  0  0  0  0  0  0  0  0  0
    9.3169    0.6176    1.1059 H   0  0  0  0  0  0  0  0  0  0  0  0
    8.4119   -0.8856    0.8308 H   0  0  0  0  0  0  0  0  0  0  0  0
    8.4256    1.5144   -1.0691 H   0  0  0  0  0  0  0  0  0  0  0  0
    7.4445    0.0764   -1.2661 H   0  0  0  0  0  0  0  0  0  0  0  0
    7.2397    2.1316    1.0087 H   0  0  0  0  0  0  0  0  0  0  0  0
    6.1531    2.0452   -0.3683 H   0  0  0  0  0  0  0  0  0  0  0  0
    2.8321   -0.1278   -1.5275 H   0  0  0  0  0  0  0  0  0  0  0  0
    3.7372    1.2812   -1.0226 H   0  0  0  0  0  0  0  0  0  0  0  0
    2.7958    1.1617    1.2562 H   0  0  0  0  0  0  0  0  0  0  0  0
    1.5412    1.2664    0.0579 H   0  0  0  0  0  0  0  0  0  0  0  0
    0.9485   -0.3257    1.8520 H   0  0  0  0  0  0  0  0  0  0  0  0
    2.3978   -1.2631    1.5696 H   0  0  0  0  0  0  0  0  0  0  0  0
   -2.8610    0.0076    0.2575 H   0  0  0  0  0  0  0  0  0  0  0  0
   -1.6503   -0.3851    1.4575 H   0  0  0  0  0  0  0  0  0  0  0  0
   -1.8487   -2.7973    0.9731 H   0  0  0  0  0  0  0  0  0  0  0  0
   -3.3828   -2.1175    1.4246 H   0  0  0  0  0  0  0  0  0  0  0  0
   -2.4873   -2.8106   -1.4257 H   0  0  0  0  0  0  0  0  0  0  0  0
   -3.5949   -3.7364   -0.4404 H   0  0  0  0  0  0  0  0  0  0  0  0
   -5.0580   -0.3673    1.2623 H   0  0  0  0  0  0  0  0  0  0  0  0
   -6.4663   -1.0290    2.0699 H   0  0  0  0  0  0  0  0  0  0  0  0
   -8.0000    0.2074    0.5758 H   0  0  0  0  0  0  0  0  0  0  0  0
   -6.9254    1.2392    1.5051 H   0  0  0  0  0  0  0  0  0  0  0  0
   -6.6878    0.5493   -1.4719 H   0  0  0  0  0  0  0  0  0  0  0  0
   -5.4107    1.4001   -0.5953 H   0  0  0  0  0  0  0  0  0  0  0  0
   -5.5329    4.5116   -0.2801 H   0  0  0  0  0  0  0  0  0  0  0  0
  1  2  1  0
  2  3  1  0
  3  4  1  0
  4  5  1  0
  6  7  1  0
  7  8  1  0
  8  9  1  0
  9 10  1  0
  5  6  1  0
 11 12  1  0
 12 13  1  0
 13 14  1  0
 14 15  1  0
 10 11  1  0
 16 17  1  0
 17 18  1  0
 18 19  1  0
 19 20  1  0
 15 16  1  0
  1 21  1  0
  1 22  1  0
  1 23  1  0
  2 24  1  0
  2 25  1  0
  3 26  1  0
  3 27  1  0
  6 28  1  0
  6 29  1  0
  7 30  1  0
  7 31  1  0
  8 32  1  0
  8 33  1  0
 11 34  1  0
 11 35  1  0
 12 36  1  0
 12 37  1  0
 13 38  1  0
 13 39  1  0
 16 40  1  0
 16 41  1  0
 17 42  1  0
 17 43  1  0
 18 44  1  0
 18 45  1  0
 20 46  1  0
M  END
$$$$
