
     RDKit          3D

 35 34  0  0  0  0  0  0  0  0999 V2000
   -3.6649   -1.4551   -1.0343 C   0  0  0  0  0  0  0  0  0  0  0  0
   -4.3530   -0.0993   -0.9666 C   0  0  0  0  0  0  0  0  0  0  0  0
   -3.5567    1.0353   -1.6084 C   0  0  0  0  0  0  0  0  0  0  0  0
   -1.9128    1.3711   -0.8826 S   0  0  0  0  0  0  0  0  0  0  0  0
   -2.3417    2.1133    0.9877 S   0  0  0  0  0  0  0  0  0  0  0  0
   -2.2721    0.6474    2.0809 C   0  0  0  0  0  0  0  0  0  0  0  0
   -0.9494   -0.1228    2.0723 C   0  0  0  0  0  0  0  0  0  0  0  0
    0.2523    0.7334    2.4701 C   0  0  0  0  0  0  0  0  0  0  0  0
    1.7887   -0.2467    2.6138 S   0  0  0  0  0  0  0  0  0  0  0  0
    2.1341   -0.8683    0.6823 S   0  0  0  0  0  0  0  0  0  0  0  0
    2.9185    0.6025   -0.0595 C   0  0  0  0  0  0  0  0  0  0  0  0
    3.2863    0.3729   -1.5259 C   0  0  0  0  0  0  0  0  0  0  0  0
    4.3366   -0.7021   -1.8174 C   0  0  0  0  0  0  0  0  0  0  0  0
    6.0272   -0.2443   -1.2972 S   0  0  0  0  0  0  0  0  0  0  0  0
    6.1595   -0.9973    0.6088 S   0  0  0  0  0  0  0  0  0  0  0  0
   -4.3320   -2.2327   -0.6484 H   0  0  0  0  0  0  0  0  0  0  0  0
   -3.4083   -1.7133   -2.0667 H   0  0  0  0  0  0  0  0  0  0  0  0
   -2.7506   -1.4783   -0.4350 H   0  0  0  0  0  0  0  0  0  0  0  0
   -5.3116   -0.1785   -1.4946 H   0  0  0  0  0  0  0  0  0  0  0  0
   -4.6029    0.1400    0.0718 H   0  0  0  0  0  0  0  0  0  0  0  0
   -4.1406    1.9620   -1.5833 H   0  0  0  0  0  0  0  0  0  0  0  0
   -3.3917    0.8017   -2.6662 H   0  0  0  0  0  0  0  0  0  0  0  0
   -3.0941   -0.0265    1.8225 H   0  0  0  0  0  0  0  0  0  0  0  0
   -2.4736    1.0035    3.0974 H   0  0  0  0  0  0  0  0  0  0  0  0
   -1.0499   -0.9554    2.7810 H   0  0  0  0  0  0  0  0  0  0  0  0
   -0.7987   -0.5786    1.0883 H   0  0  0  0  0  0  0  0  0  0  0  0
    0.0714    1.1886    3.4498 H   0  0  0  0  0  0  0  0  0  0  0  0
    0.4311    1.5489    1.7638 H   0  0  0  0  0  0  0  0  0  0  0  0
    3.7951    0.8943    0.5243 H   0  0  0  0  0  0  0  0  0  0  0  0
    2.2004    1.4283   -0.0125 H   0  0  0  0  0  0  0  0  0  0  0  0
    3.6243    1.3275   -1.9507 H   0  0  0  0  0  0  0  0  0  0  0  0
    2.3732    0.1157   -2.0798 H   0  0  0  0  0  0  0  0  0  0  0  0
    4.3872   -0.8299   -2.9049 H   0  0  0  0  0  0  0  0  0  0  0  0
    4.0621   -1.6805   -1.4117 H   0  0  0  0  0  0  0  0  0  0  0  0
    6.5564   -2.2484    0.3307 H   0  0  0  0  0  0  0  0  0  0  0  0
  1  2  1  0
  2  3  1  0
  3  4  1  0
  4  5  1  0
  6  7  1  0
  7  8  1  0
  8  9  1  0
  9 10  1  0
  5  6  1  0
 11 12  1  0
 12 13  1  0
 13 14  1  0
 14 15  1  0
 10 11  1  0
  1 16  1  0
  1 17  1  0
  1 18  1  0
  2 19  1  0
  2 20  1  0
  3 21  1  0
  3 22  1  0
  6 23  1  0
  6 24  1  0
  7 25  1  0
  7 26  1  0
  8 27  1  0
  8 28  1  0
 11 29  1  0
 11 30  1  0
 12 31  1  0
 12 32  1  0
 13 33  1  0
 13 34  1  0
 15 35  1  0
M  END
$$$$
