
     RDKit          3D

 24 23  0  0  0  0  0  0  0  0999 V2000
   -4.4049   -0.5281    0.0502 C   0  0  0  0  0  0  0  0  0  0  0  0
   -3.2551    0.3753    0.4736 C   0  0  0  0  0  0  0  0  0  0  0  0
   -2.4017    0.8803   -0.6904 C   0  0  0  0  0  0  0  0  0  0  0  0
   -1.5467   -0.4209   -1.6464 S   0  0  0  0  0  0  0  0  0  0  0  0
   -0.2276   -1.2219   -0.2858 S   0  0  0  0  0  0  0  0  0  0  0  0
    1.1849   -0.0734   -0.4040 C   0  0  0  0  0  0  0  0  0  0  0  0
    2.2976   -0.5306    0.5397 C   0  0  0  0  0  0  0  0  0  0  0  0
    3.4552    0.4659    0.6390 C   0  0  0  0  0  0  0  0  0  0  0  0
    4.3167    0.8248   -0.9305 S   0  0  0  0  0  0  0  0  0  0  0  0
    5.1608   -0.9816   -1.4227 S   0  0  0  0  0  0  0  0  0  0  0  0
   -5.0335   -0.7636    0.9151 H   0  0  0  0  0  0  0  0  0  0  0  0
   -4.0456   -1.4748   -0.3635 H   0  0  0  0  0  0  0  0  0  0  0  0
   -5.0336   -0.0379   -0.6999 H   0  0  0  0  0  0  0  0  0  0  0  0
   -3.6790    1.2484    0.9852 H   0  0  0  0  0  0  0  0  0  0  0  0
   -2.6374   -0.1410    1.2166 H   0  0  0  0  0  0  0  0  0  0  0  0
   -1.6539    1.5922   -0.3248 H   0  0  0  0  0  0  0  0  0  0  0  0
   -3.0376    1.4293   -1.3937 H   0  0  0  0  0  0  0  0  0  0  0  0
    1.5356   -0.0615   -1.4401 H   0  0  0  0  0  0  0  0  0  0  0  0
    0.8496    0.9316   -0.1283 H   0  0  0  0  0  0  0  0  0  0  0  0
    2.6712   -1.5165    0.2377 H   0  0  0  0  0  0  0  0  0  0  0  0
    1.8904   -0.6533    1.5524 H   0  0  0  0  0  0  0  0  0  0  0  0
    4.1933    0.1102    1.3663 H   0  0  0  0  0  0  0  0  0  0  0  0
    3.0764    1.4206    1.0206 H   0  0  0  0  0  0  0  0  0  0  0  0
    6.3248   -0.8735   -0.7637 H   0  0  0  0  0  0  0  0  0  0  0  0
  1  2  1  0
  2  3  1  0
  3  4  1  0
  4  5  1  0
  6  7  1  0
  7  8  1  0
  8  9  1  0
  9 10  1  0
  5  6  1  0
  1 11  1  0
  1 12  1  0
  1 13  1  0
  2 14  1  0
  2 15  1  0
  3 16  1  0
  3 17  1  0
  6 18  1  0
  6 19  1  0
  7 20  1  0
  7 21  1  0
  8 22  1  0
  8 23  1  0
 10 24  1  0
M  END
$$$$
