
     RDKit          3D

 20 19  0  0  0  0  0  0  0  0999 V2000
    2.7823    0.9725   -0.4640 C   0  0  0  0  0  0  0  0  0  0  0  0
    2.6349   -0.4885   -0.1167 C   0  0  0  0  0  0  0  0  0  0  0  0
    3.9022   -1.3410    0.5830 S   0  0  0  0  0  0  0  0  0  0  0  0
    1.3091   -1.1615   -0.4217 C   0  0  0  0  0  0  0  0  0  0  0  0
    0.2820   -0.4540    0.2653 O   0  0  0  0  0  0  0  0  0  0  0  0
   -0.9988   -1.0315    0.0314 C   0  0  0  0  0  0  0  0  0  0  0  0
   -2.0182   -0.2093    0.7913 C   0  0  0  0  0  0  0  0  0  0  0  0
   -2.9171   -0.8683    2.0525 S   0  0  0  0  0  0  0  0  0  0  0  0
   -2.2639    1.2137    0.3303 C   0  0  0  0  0  0  0  0  0  0  0  0
   -3.3129    1.2289   -0.6254 O   0  0  0  0  0  0  0  0  0  0  0  0
    3.8150    1.3204   -0.3707 H   0  0  0  0  0  0  0  0  0  0  0  0
    2.4538    1.1319   -1.4955 H   0  0  0  0  0  0  0  0  0  0  0  0
    2.1493    1.5674    0.2012 H   0  0  0  0  0  0  0  0  0  0  0  0
    1.3126   -2.2118   -0.1099 H   0  0  0  0  0  0  0  0  0  0  0  0
    1.1370   -1.1062   -1.5027 H   0  0  0  0  0  0  0  0  0  0  0  0
   -1.0032   -2.0768    0.3593 H   0  0  0  0  0  0  0  0  0  0  0  0
   -1.2402   -0.9862   -1.0366 H   0  0  0  0  0  0  0  0  0  0  0  0
   -2.5271    1.8703    1.1659 H   0  0  0  0  0  0  0  0  0  0  0  0
   -1.3622    1.6124   -0.1434 H   0  0  0  0  0  0  0  0  0  0  0  0
   -4.1346    1.0177   -0.1445 H   0  0  0  0  0  0  0  0  0  0  0  0
  1  2  1  0
  2  3  2  0
  2  4  1  0
  4  5  1  0
  6  7  1  0
  7  8  2  0
  7  9  1  0
  9 10  1  0
  5  6  1  0
  1 11  1  0
  1 12  1  0
  1 13  1  0
  4 14  1  0
  4 15  1  0
  6 16  1  0
  6 17  1  0
  9 18  1  0
  9 19  1  0
 10 20  1  0
M  END
$$$$
