
     RDKit          3D

 29 28  0  0  0  0  0  0  0  0999 V2000
    2.2219    1.3298   -1.7751 C   0  0  0  0  0  0  0  0  0  0  0  0
    2.8488    1.5356   -0.4183 C   0  0  0  0  0  0  0  0  0  0  0  0
    4.4352    2.0731   -0.2775 S   0  0  0  0  0  0  0  0  0  0  0  0
    1.9871    1.3030    0.8085 C   0  0  0  0  0  0  0  0  0  0  0  0
    1.6229   -0.0736    0.8357 O   0  0  0  0  0  0  0  0  0  0  0  0
    0.8252   -0.3804    1.9752 C   0  0  0  0  0  0  0  0  0  0  0  0
    0.3710   -1.8203    1.8397 C   0  0  0  0  0  0  0  0  0  0  0  0
    0.8086   -2.9854    2.9717 S   0  0  0  0  0  0  0  0  0  0  0  0
   -0.5143   -2.1651    0.6589 C   0  0  0  0  0  0  0  0  0  0  0  0
   -1.7726   -1.5265    0.8727 O   0  0  0  0  0  0  0  0  0  0  0  0
   -2.6064   -1.5613   -0.2769 C   0  0  0  0  0  0  0  0  0  0  0  0
   -2.2871   -0.4149   -1.2224 C   0  0  0  0  0  0  0  0  0  0  0  0
   -1.9799   -0.6900   -2.8554 S   0  0  0  0  0  0  0  0  0  0  0  0
   -2.3259    1.0023   -0.6695 C   0  0  0  0  0  0  0  0  0  0  0  0
   -1.1466    1.7312   -0.9657 O   0  0  0  0  0  0  0  0  0  0  0  0
    1.6731    0.3837   -1.7892 H   0  0  0  0  0  0  0  0  0  0  0  0
    2.9666    1.3074   -2.5759 H   0  0  0  0  0  0  0  0  0  0  0  0
    1.5195    2.1456   -1.9694 H   0  0  0  0  0  0  0  0  0  0  0  0
    1.0900    1.9260    0.7249 H   0  0  0  0  0  0  0  0  0  0  0  0
    2.5220    1.5647    1.7282 H   0  0  0  0  0  0  0  0  0  0  0  0
    1.4101   -0.2251    2.8882 H   0  0  0  0  0  0  0  0  0  0  0  0
   -0.0607    0.2642    2.0006 H   0  0  0  0  0  0  0  0  0  0  0  0
   -0.6653   -3.2459    0.5662 H   0  0  0  0  0  0  0  0  0  0  0  0
   -0.0387   -1.7922   -0.2543 H   0  0  0  0  0  0  0  0  0  0  0  0
   -2.5558   -2.5406   -0.7663 H   0  0  0  0  0  0  0  0  0  0  0  0
   -3.6376   -1.4180    0.0649 H   0  0  0  0  0  0  0  0  0  0  0  0
   -2.4385    0.9754    0.4180 H   0  0  0  0  0  0  0  0  0  0  0  0
   -3.1902    1.5340   -1.0817 H   0  0  0  0  0  0  0  0  0  0  0  0
   -1.0823    1.7631   -1.9392 H   0  0  0  0  0  0  0  0  0  0  0  0
  1  2  1  0
  2  3  2  0
  2  4  1  0
  4  5  1  0
  6  7  1  0
  7  8  2  0
  7  9  1  0
  9 10  1  0
  5  6  1  0
 11 12  1  0
 12 13  2  0
 12 14  1  0
 14 15  1  0
 10 11  1  0
  1 16  1  0
  1 17  1  0
  1 18  1  0
  4 19  1  0
  4 20  1  0
  6 21  1  0
  6 22  1  0
  9 23  1  0
  9 24  1  0
 11 25  1  0
 11 26  1  0
 14 27  1  0
 14 28  1  0
 15 29  1  0
M  END
$$$$
