
     RDKit          3D

 14 13  0  0  0  0  0  0  0  0999 V2000
    0.7920    1.2584    0.4791 C   0  0  0  0  0  0  0  0  0  0  0  0
    1.8966    0.9298   -0.3628 O   0  0  0  0  0  0  0  0  0  0  0  0
   -0.1676    0.0747    0.5727 C   0  0  0  0  0  0  0  0  0  0  0  0
    0.5626   -1.0644    1.0615 O   0  0  0  0  0  0  0  0  0  0  0  0
   -0.7761   -0.2903   -0.7834 C   0  0  0  0  0  0  0  0  0  0  0  0
   -1.6443   -1.4128   -0.5942 O   0  0  0  0  0  0  0  0  0  0  0  0
    0.2962    2.1454    0.0743 H   0  0  0  0  0  0  0  0  0  0  0  0
    1.1981    1.5021    1.4661 H   0  0  0  0  0  0  0  0  0  0  0  0
    2.2255    0.0752   -0.0167 H   0  0  0  0  0  0  0  0  0  0  0  0
   -0.9612    0.2851    1.2980 H   0  0  0  0  0  0  0  0  0  0  0  0
   -0.0523   -1.8169    0.9399 H   0  0  0  0  0  0  0  0  0  0  0  0
   -0.0051   -0.5926   -1.4991 H   0  0  0  0  0  0  0  0  0  0  0  0
   -1.3579    0.5401   -1.1943 H   0  0  0  0  0  0  0  0  0  0  0  0
   -2.0066   -1.6337   -1.4710 H   0  0  0  0  0  0  0  0  0  0  0  0
  1  2  1  0
  3  4  1  0
  1  3  1  0
  5  6  1  0
  3  5  1  0
  1  7  1  0
  1  8  1  0
  2  9  1  0
  3 10  1  0
  4 11  1  0
  5 12  1  0
  5 13  1  0
  6 14  1  0
M  END
$$$$
