
     RDKit          3D

 30 29  0  0  0  0  0  0  0  0999 V2000
    6.3504    0.5101    0.0418 C   0  0  0  0  0  0  0  0  0  0  0  0
    4.9012    0.2189    0.3900 C   0  0  0  0  0  0  0  0  0  0  0  0
    4.0516   -0.5008   -1.0512 S   0  0  0  0  0  0  0  0  0  0  0  0
    2.4525   -0.9336   -0.2795 C   0  0  0  0  0  0  0  0  0  0  0  0
    1.5944    0.2987   -0.0080 C   0  0  0  0  0  0  0  0  0  0  0  0
   -0.0120   -0.1415    0.7445 S   0  0  0  0  0  0  0  0  0  0  0  0
   -0.8429   -0.8729   -0.7130 C   0  0  0  0  0  0  0  0  0  0  0  0
   -2.3473   -1.0564   -0.4954 C   0  0  0  0  0  0  0  0  0  0  0  0
   -3.2605    0.5260   -0.5476 S   0  0  0  0  0  0  0  0  0  0  0  0
   -4.9261   -0.1055   -0.1376 C   0  0  0  0  0  0  0  0  0  0  0  0
   -5.9646    1.0127   -0.0435 C   0  0  0  0  0  0  0  0  0  0  0  0
   -5.7178    2.0922    1.4021 S   0  0  0  0  0  0  0  0  0  0  0  0
    6.4302    1.2288   -0.7809 H   0  0  0  0  0  0  0  0  0  0  0  0
    6.8883   -0.4021   -0.2382 H   0  0  0  0  0  0  0  0  0  0  0  0
    6.8616    0.9421    0.9087 H   0  0  0  0  0  0  0  0  0  0  0  0
    4.4036    1.1471    0.6842 H   0  0  0  0  0  0  0  0  0  0  0  0
    4.8587   -0.4853    1.2264 H   0  0  0  0  0  0  0  0  0  0  0  0
    2.6449   -1.5009    0.6375 H   0  0  0  0  0  0  0  0  0  0  0  0
    1.9480   -1.6054   -0.9808 H   0  0  0  0  0  0  0  0  0  0  0  0
    1.4104    0.8727   -0.9224 H   0  0  0  0  0  0  0  0  0  0  0  0
    2.0927    0.9651    0.7026 H   0  0  0  0  0  0  0  0  0  0  0  0
   -0.6535   -0.2580   -1.5995 H   0  0  0  0  0  0  0  0  0  0  0  0
   -0.3959   -1.8574   -0.8846 H   0  0  0  0  0  0  0  0  0  0  0  0
   -2.7431   -1.6855   -1.3000 H   0  0  0  0  0  0  0  0  0  0  0  0
   -2.5434   -1.5651    0.4547 H   0  0  0  0  0  0  0  0  0  0  0  0
   -5.2230   -0.7962   -0.9339 H   0  0  0  0  0  0  0  0  0  0  0  0
   -4.8822   -0.6709    0.7996 H   0  0  0  0  0  0  0  0  0  0  0  0
   -6.9620    0.5705    0.0498 H   0  0  0  0  0  0  0  0  0  0  0  0
   -5.9651    1.6277   -0.9498 H   0  0  0  0  0  0  0  0  0  0  0  0
   -4.4492    2.4251    1.1096 H   0  0  0  0  0  0  0  0  0  0  0  0
  1  2  1  0
  2  3  1  0
  4  5  1  0
  5  6  1  0
  3  4  1  0
  7  8  1  0
  8  9  1  0
  6  7  1  0
 10 11  1  0
 11 12  1  0
  9 10  1  0
  1 13  1  0
  1 14  1  0
  1 15  1  0
  2 16  1  0
  2 17  1  0
  4 18  1  0
  4 19  1  0
  5 20  1  0
  5 21  1  0
  7 22  1  0
  7 23  1  0
  8 24  1  0
  8 25  1  0
 10 26  1  0
 10 27  1  0
 11 28  1  0
 11 29  1  0
 12 30  1  0
M  END
$$$$
